<?xml version="1.0" encoding="iso-8859-1"?>
<!-- Compatible con Veins -->
<shapes xmlns:xsi="http://www.w3.org/2001/XMLSchema-instance" xsi:noNamespaceSchemaLocation="http://sumo.dlr.de/xsd/additional_file.xsd">
    <location netOffset="0.00,0.00" convBoundary="170.50,-325891.69,723234.17,2947.80" origBoundary="-79.040006,-2.946653,-78.991669,-2.909731" projParameter="+proj=utm +zone=17 +ellps=WGS84 +datum=WGS84 +units=m +no_defs" />

    <poly id="1003708172" type="tourism" color="207,245,201" fill="1" layer="-2.00" shape="720850.698784,-323271.684904 720903.657866,-323211.523775 720960.957912,-323199.282207 720993.514078,-323194.572963 721025.051106,-323193.954120 721085.480755,-323185.246276 721118.172497,-323191.906981 721095.333374,-323254.090112 721035.966033,-323290.870087 721003.804985,-323298.521963 721002.709587,-323289.152207 720988.288551,-323294.634555 720850.698784,-323271.684904" />
    <poly id="1011922616" type="leisure" color="207,245,201" fill="1" layer="-2.00" shape="721457.664486,-322939.853418 721484.513839,-322942.809787 721481.290600,-322960.765555 721455.776107,-322957.546109 721457.664486,-322939.853418" />
    <poly id="1011922616#1" type="sport" color="79,230,125" fill="1" layer="-2.00" shape="721457.664486,-322939.853418 721484.513839,-322942.809787 721481.290600,-322960.765555 721455.776107,-322957.546109 721457.664486,-322939.853418" />
    <poly id="1050003638" type="building" color="1.00,0.00,0.00" fill="1" layer="4" shape="721194.704847,-322937.662346 721197.761831,-322950.784926 721185.313597,-322953.649554 721182.267732,-322940.526995 721194.704847,-322937.662346" />
    <poly id="1054077297" type="shop" color="237,199,255" fill="1" layer="-1.00" shape="718189.318970,-323454.624069 718190.738538,-323494.917503 718218.761511,-323506.822654 718250.739131,-323470.137837 718237.364893,-323443.150576 718189.318970,-323454.624069" />
    <poly id="1054301404" type="landuse" color="194,194,130" fill="1" layer="-3.00" shape="721725.478395,-322744.532413 721726.372754,-322760.659536 721412.594632,-322764.549652 721369.687271,-322736.923176 721373.268112,-322730.514705 721389.152450,-322721.363009 721405.721747,-322746.144668 721427.781025,-322753.925744 721453.750541,-322751.394748 721502.055672,-322745.032312 721544.383948,-322741.756110 721624.048002,-322747.571072 721672.594771,-322749.205529 721696.745860,-322750.011488 721725.478395,-322744.532413" />
    <poly id="1059361241" type="leisure" color="207,245,201" fill="1" layer="-2.00" shape="718421.145129,-322906.085559 718459.449640,-322895.059485 718466.848567,-322918.043711 718426.166280,-322928.014938 718421.145129,-322906.085559" />
    <poly id="1059361241#1" type="sport" color="79,230,125" fill="1" layer="-2.00" shape="718421.145129,-322906.085559 718459.449640,-322895.059485 718466.848567,-322918.043711 718426.166280,-322928.014938 718421.145129,-322906.085559" />
    <poly id="109187159" type="parking" color="184,184,179" fill="1" layer="-1.00" shape="720738.490895,-322741.591752 720727.515601,-322741.572378 720720.651038,-322712.107539 720709.439884,-322713.414950 720685.623624,-322705.675176 720669.565574,-322687.298342 720611.150109,-322688.832163 720592.639151,-322705.677027 720595.568718,-322746.946945 720608.657081,-322759.401444 720629.508875,-322758.254818 720631.119486,-322860.075772 720607.313638,-322859.060478 720607.858088,-322871.902067 720560.189518,-322870.601348 720543.526851,-322854.590293 720499.450054,-322853.262760 720496.773018,-322889.468364 720526.984301,-322915.457286 720557.039938,-322916.218162 720557.044871,-322919.724180 720626.272113,-322922.567123 720625.148033,-322910.520829 720646.252671,-322911.011545 720646.564114,-322917.260980 720650.711518,-322917.434202 720650.374125,-322925.883427 720679.841678,-322925.935457 720679.788083,-322918.503058 720682.359967,-322916.693763 720683.391111,-322893.204194 720716.274732,-322891.979301 720725.619699,-322895.855737 720762.162791,-322894.051140 720778.270978,-322884.015009 720800.908887,-322885.238416 720842.020788,-322877.978277 720842.041582,-322878.796753 720852.140376,-322896.576935 720868.342338,-322921.579017 720887.205472,-322944.583952 720891.397708,-322950.851316 720654.369385,-322987.030021 720553.956008,-323000.235302 720546.993362,-323001.152049 720493.277079,-323005.348510 720475.409437,-322997.939984 720466.635407,-322979.299523 720454.344806,-322930.669302 720447.027457,-322886.814705 720454.923639,-322867.285678 720472.787557,-322851.600977 720488.168696,-322843.952491 720496.490034,-322835.561595 720515.615711,-322798.013566 720524.304006,-322777.014954 720542.846621,-322735.904580 720561.672254,-322704.560652 720586.739583,-322683.878480 720610.885827,-322674.752353 720640.381409,-322671.552750 720669.583858,-322676.935177 720695.197211,-322680.829242 720712.776024,-322681.811421 720731.548222,-322712.281612 720738.490895,-322741.591752" />
    <poly id="109187160" type="building" color="1.00,0.00,0.00" fill="1" layer="4" shape="720842.020788,-322877.978277 720800.908887,-322885.238416 720778.270978,-322884.015009 720762.162791,-322894.051140 720725.619699,-322895.855737 720716.274732,-322891.979301 720683.391111,-322893.204194 720682.359967,-322916.693763 720679.788083,-322918.503058 720679.841678,-322925.935457 720650.374125,-322925.883427 720650.711518,-322917.434202 720646.564114,-322917.260980 720646.252671,-322911.011545 720625.148033,-322910.520829 720626.272113,-322922.567123 720557.044871,-322919.724180 720557.039938,-322916.218162 720526.984301,-322915.457286 720496.773018,-322889.468364 720499.450054,-322853.262760 720543.526851,-322854.590293 720560.189518,-322870.601348 720607.858088,-322871.902067 720607.313638,-322859.060478 720631.119486,-322860.075772 720629.508875,-322758.254818 720608.657081,-322759.401444 720595.568718,-322746.946945 720592.639151,-322705.677027 720611.150109,-322688.832163 720669.565574,-322687.298342 720685.623624,-322705.675176 720709.439884,-322713.414950 720720.651038,-322712.107539 720727.515601,-322741.572378 720738.490895,-322741.591752 720745.960605,-322781.000587 720755.562696,-322790.407463 720729.134671,-322819.669748 720741.438183,-322835.772682 720767.227115,-322834.679045 720773.094474,-322843.205592 720830.067741,-322839.744910 720842.020788,-322877.978277" />
    <poly id="109187160#1" type="shop" color="237,199,255" fill="1" layer="-1.00" shape="720842.020788,-322877.978277 720800.908887,-322885.238416 720778.270978,-322884.015009 720762.162791,-322894.051140 720725.619699,-322895.855737 720716.274732,-322891.979301 720683.391111,-322893.204194 720682.359967,-322916.693763 720679.788083,-322918.503058 720679.841678,-322925.935457 720650.374125,-322925.883427 720650.711518,-322917.434202 720646.564114,-322917.260980 720646.252671,-322911.011545 720625.148033,-322910.520829 720626.272113,-322922.567123 720557.044871,-322919.724180 720557.039938,-322916.218162 720526.984301,-322915.457286 720496.773018,-322889.468364 720499.450054,-322853.262760 720543.526851,-322854.590293 720560.189518,-322870.601348 720607.858088,-322871.902067 720607.313638,-322859.060478 720631.119486,-322860.075772 720629.508875,-322758.254818 720608.657081,-322759.401444 720595.568718,-322746.946945 720592.639151,-322705.677027 720611.150109,-322688.832163 720669.565574,-322687.298342 720685.623624,-322705.675176 720709.439884,-322713.414950 720720.651038,-322712.107539 720727.515601,-322741.572378 720738.490895,-322741.591752 720745.960605,-322781.000587 720755.562696,-322790.407463 720729.134671,-322819.669748 720741.438183,-322835.772682 720767.227115,-322834.679045 720773.094474,-322843.205592 720830.067741,-322839.744910 720842.020788,-322877.978277" />
    <poly id="1095225764" type="building" color="1.00,0.00,0.00" fill="1" layer="4" shape="720396.042340,-323435.320905 720400.539157,-323426.525120 720395.361935,-323423.916885 720402.291301,-323410.347492 720397.847338,-323408.105532 720386.432276,-323430.470729 720396.042340,-323435.320905" />
    <poly id="1095225765" type="building" color="1.00,0.00,0.00" fill="1" layer="4" shape="720401.284935,-323413.508864 720406.995028,-323416.615738 720408.924921,-323413.124199 720403.214828,-323410.017325 720401.284935,-323413.508864" />
    <poly id="1095226317" type="building" color="1.00,0.00,0.00" fill="1" layer="4" shape="720425.711349,-323220.456139 720432.272025,-323220.467721 720432.298169,-323205.658478 720425.737492,-323205.646896 720425.711349,-323220.456139" />
    <poly id="1095226318" type="building" color="1.00,0.00,0.00" fill="1" layer="4" shape="720425.211475,-323213.863519 720415.970773,-323213.935686 720416.026285,-323220.284202 720425.266987,-323220.212035 720425.211475,-323213.863519" />
    <poly id="1095226319" type="building" color="1.00,0.00,0.00" fill="1" layer="4" shape="720458.652712,-323148.657715 720438.116045,-323147.714547 720437.433876,-323162.500512 720457.970540,-323163.443681 720458.652712,-323148.657715" />
    <poly id="1095226320" type="building" color="1.00,0.00,0.00" fill="1" layer="4" shape="720352.894035,-323071.869809 720343.363879,-323072.129497 720343.615089,-323081.011085 720353.145244,-323080.751397 720352.894035,-323071.869809" />
    <poly id="1095226321" type="building" color="1.00,0.00,0.00" fill="1" layer="4" shape="720327.062997,-323084.288816 720342.863722,-323084.604245 720343.096419,-323072.460824 720331.776815,-323072.241779 720331.630327,-323079.640630 720327.149185,-323079.555307 720327.062997,-323084.288816" />
    <poly id="1095226322" type="building" color="1.00,0.00,0.00" fill="1" layer="4" shape="720270.082702,-323110.809629 720273.957829,-323101.426563 720265.268373,-323097.883115 720261.393228,-323107.277240 720270.082702,-323110.809629" />
    <poly id="1095226323" type="building" color="1.00,0.00,0.00" fill="1" layer="4" shape="720220.502150,-323102.947058 720225.969420,-323105.035968 720233.565509,-323085.406890 720222.119807,-323081.029091 720218.321744,-323090.854690 720224.300193,-323093.132519 720220.502150,-323102.947058" />
    <poly id="1095226324" type="building" color="1.00,0.00,0.00" fill="1" layer="4" shape="720223.498145,-323093.938482 720218.164526,-323091.728148 720215.618529,-323097.784512 720220.952147,-323099.994845 720223.498145,-323093.938482" />
    <poly id="1095226325" type="building" color="1.00,0.00,0.00" fill="1" layer="4" shape="720200.311481,-323082.362079 720207.203957,-323083.391745 720208.430325,-323075.275905 720201.537848,-323074.246239 720200.311481,-323082.362079" />
    <poly id="1095226326" type="building" color="1.00,0.00,0.00" fill="1" layer="4" shape="720180.104274,-323102.698880 720183.951116,-323103.048520 720185.017100,-323091.293676 720174.666196,-323090.357455 720173.997165,-323097.711139 720180.501226,-323098.297721 720180.104274,-323102.698880" />
    <poly id="1095227961" type="building" color="1.00,0.00,0.00" fill="1" layer="4" shape="720782.133587,-323108.296159 720771.280308,-323108.464995 720771.490991,-323121.383426 720782.333149,-323121.214572 720782.133587,-323108.296159" />
    <poly id="1095227963" type="building" color="1.00,0.00,0.00" fill="1" layer="4" shape="720803.807723,-323321.228111 720802.086207,-323288.631292 720791.326703,-323292.372656 720793.944472,-323302.342331 720788.871864,-323303.450417 720791.286099,-323321.615181 720803.807723,-323321.228111" />
    <poly id="1095227964" type="building" color="1.00,0.00,0.00" fill="1" layer="4" shape="720812.885136,-323331.751154 720813.821730,-323336.608145 720820.151050,-323335.402744 720819.214457,-323330.545753 720812.885136,-323331.751154" />
    <poly id="1095227965" type="building" color="1.00,0.00,0.00" fill="1" layer="4" shape="720783.297212,-323311.779785 720783.508363,-323305.564448 720776.770133,-323305.342390 720776.240947,-323321.621749 720783.679684,-323321.867166 720783.561874,-323325.605232 720788.799008,-323325.780395 720789.257114,-323311.967286 720783.297212,-323311.779785" />
    <poly id="1095227966" type="building" color="1.00,0.00,0.00" fill="1" layer="4" shape="720772.019403,-323313.075976 720764.471287,-323311.801788 720762.448851,-323323.599212 720769.985828,-323324.884440 720772.019403,-323313.075976" />
    <poly id="1095227967" type="building" color="1.00,0.00,0.00" fill="1" layer="4" shape="720743.163427,-323306.787114 720743.249365,-323314.783632 720751.600512,-323314.698861 720751.514575,-323306.702342 720743.163427,-323306.787114" />
    <poly id="1095227968" type="building" color="1.00,0.00,0.00" fill="1" layer="4" shape="720749.329657,-323322.348352 720749.464551,-323315.237022 720743.504514,-323315.126942 720743.358519,-323322.227192 720749.329657,-323322.348352" />
    <poly id="1095227969" type="building" color="1.00,0.00,0.00" fill="1" layer="4" shape="720736.054091,-323315.202247 720735.453063,-323309.228795 720730.848644,-323309.685172 720732.148900,-323322.694008 720742.492153,-323321.672661 720741.781805,-323314.637257 720736.054091,-323315.202247" />
    <poly id="1095227970" type="building" color="1.00,0.00,0.00" fill="1" layer="4" shape="720737.732497,-323328.167512 720746.973403,-323327.984775 720746.860709,-323322.543065 720737.619803,-323322.725802 720737.732497,-323328.167512" />
    <poly id="1095227971" type="building" color="1.00,0.00,0.00" fill="1" layer="4" shape="720734.660362,-323329.898496 720734.241214,-323340.548516 720745.727223,-323340.989109 720746.146372,-323330.339088 720734.660362,-323329.898496" />
    <poly id="1095227972" type="building" color="1.00,0.00,0.00" fill="1" layer="4" shape="720732.336618,-323342.303685 720732.133440,-323350.299691 720744.053374,-323350.597272 720744.256553,-323342.601265 720732.336618,-323342.303685" />
    <poly id="1095227973" type="building" color="1.00,0.00,0.00" fill="1" layer="4" shape="720691.398375,-323339.488418 720698.268438,-323353.192818 720715.118466,-323338.645563 720705.319437,-323327.457657 720691.398375,-323339.488418" />
    <poly id="1095227974" type="building" color="1.00,0.00,0.00" fill="1" layer="4" shape="720680.425318,-323363.391747 720684.569863,-323371.461799 720693.918919,-323366.711480 720689.763253,-323358.641408 720680.425318,-323363.391747" />
    <poly id="1095227975" type="building" color="1.00,0.00,0.00" fill="1" layer="4" shape="720707.484081,-323373.581596 720722.376077,-323365.854887 720719.804911,-323360.972888 720726.226940,-323357.644132 720723.090580,-323351.677256 720701.787674,-323362.732743 720707.484081,-323373.581596" />
    <poly id="1095227976" type="building" color="1.00,0.00,0.00" fill="1" layer="4" shape="720739.464183,-323361.306277 720749.191043,-323356.711468 720746.111104,-323350.280172 720736.384244,-323354.874981 720739.464183,-323361.306277" />
    <poly id="1095227977" type="building" color="1.00,0.00,0.00" fill="1" layer="4" shape="720775.879492,-323349.945726 720774.228307,-323340.453340 720759.879363,-323342.916456 720762.378146,-323357.287792 720772.389017,-323355.580143 720771.541439,-323350.690131 720775.879492,-323349.945726" />
    <poly id="1095227978" type="building" color="1.00,0.00,0.00" fill="1" layer="4" shape="720757.836411,-323341.165365 720769.226020,-323339.526513 720767.863578,-323330.244778 720756.485087,-323331.883651 720757.836411,-323341.165365" />
    <poly id="1095227979" type="building" color="1.00,0.00,0.00" fill="1" layer="4" shape="720778.987467,-323359.385389 720792.571317,-323355.693264 720789.842276,-323345.767631 720776.258426,-323349.459757 720778.987467,-323359.385389" />
    <poly id="1095227980" type="building" color="1.00,0.00,0.00" fill="1" layer="4" shape="720766.597600,-323373.299050 720780.849516,-323369.110408 720779.313020,-323363.931618 720765.049984,-323368.120241 720766.597600,-323373.299050" />
    <poly id="1095227981" type="building" color="1.00,0.00,0.00" fill="1" layer="4" shape="720782.678296,-323372.497998 720802.615621,-323366.516639 720799.730141,-323357.022067 720779.792835,-323362.992368 720782.678296,-323372.497998" />
    <poly id="1095227982" type="building" color="1.00,0.00,0.00" fill="1" layer="4" shape="720707.901577,-323326.135025 720711.673684,-323331.019146 720724.649109,-323325.534220 720724.421938,-323315.657257 720707.901577,-323326.135025" />
    <poly id="1095227983" type="forest" color="140,196,107" fill="1" layer="-3.00" shape="719943.240673,-323071.380121 720057.350338,-323091.367316 720149.477353,-323142.217378 720193.891610,-323134.940811 720270.499879,-323151.687947 720394.533567,-323143.600743 720386.283827,-323079.914002 720585.286370,-323047.372905 720711.309121,-323046.555849 720747.980889,-323091.468864 720919.192696,-323073.002750 721016.912932,-323023.394561 721062.682097,-323098.948974 721163.028177,-323117.618937 721113.793717,-323134.000112 721010.713425,-323152.332095 720865.088366,-323214.828842 720699.870510,-323302.419291 720543.952904,-323299.787951 720422.725594,-323318.121386 720261.192450,-323265.235113 720180.300702,-323306.611462 720084.123679,-323320.288900 720092.166692,-323261.596913 720077.639639,-323188.498277 720045.263706,-323147.829128 720043.838213,-323130.119655 720050.311689,-323116.505216 720003.875556,-323097.455624 719944.239387,-323116.760781 719900.044789,-323113.000007 719866.565729,-323092.535503 719849.336926,-323069.666430 719943.240673,-323071.380121" />
    <poly id="1095231209" type="building" color="1.00,0.00,0.00" fill="1" layer="4" shape="720690.706790,-323403.590826 720694.320791,-323397.270910 720687.866607,-323393.631824 720690.677498,-323388.715104 720682.912489,-323384.332682 720676.487619,-323395.558257 720690.706790,-323403.590826" />
    <poly id="1095231210" type="building" color="1.00,0.00,0.00" fill="1" layer="4" shape="720709.732812,-323378.440903 720709.067678,-323377.278429 720703.223997,-323380.541848 720709.165644,-323391.048276 720721.977221,-323383.893008 720716.700689,-323374.560113 720709.732812,-323378.440903" />
    <poly id="1095231211" type="building" color="1.00,0.00,0.00" fill="1" layer="4" shape="720727.900822,-323398.314639 720721.511118,-323389.654433 720710.276733,-323397.841068 720716.666436,-323406.501273 720727.900822,-323398.314639" />
    <poly id="1095231212" type="building" color="1.00,0.00,0.00" fill="1" layer="4" shape="720740.032113,-323404.850426 720743.125568,-323403.639300 720745.981797,-323410.811220 720756.808908,-323406.561220 720750.709076,-323391.188115 720745.801823,-323393.114932 720743.764839,-323387.990557 720734.740406,-323391.524849 720740.032113,-323404.850426" />
    <poly id="1095231213" type="building" color="1.00,0.00,0.00" fill="1" layer="4" shape="720762.770460,-323418.383828 720758.792366,-323410.513143 720750.689780,-323414.668422 720754.801371,-323422.506163 720762.770460,-323418.383828" />
    <poly id="1095231214" type="building" color="1.00,0.00,0.00" fill="1" layer="4" shape="720762.770460,-323418.383828 720771.495658,-323414.284951 720766.431600,-323404.277767 720757.695302,-323408.365566 720758.792366,-323410.513143 720762.770460,-323418.383828" />
    <poly id="1095231215" type="building" color="1.00,0.00,0.00" fill="1" layer="4" shape="720723.009495,-323422.671123 720732.082044,-323417.079761 720726.293907,-323407.801260 720717.221378,-323413.381562 720723.009495,-323422.671123" />
    <poly id="1095231216" type="building" color="1.00,0.00,0.00" fill="1" layer="4" shape="720734.814025,-323450.485735 720739.122509,-323447.595643 720759.047147,-323436.205932 720754.523206,-323428.887280 720753.369741,-323427.193062 720729.756549,-323443.044481 720734.814025,-323450.485735" />
    <poly id="1095231217" type="building" color="1.00,0.00,0.00" fill="1" layer="4" shape="720781.207073,-323437.273718 720776.088828,-323426.470118 720769.554680,-323430.318492 720759.047147,-323436.205932 720739.122509,-323447.595643 720741.514287,-323453.306824 720731.974728,-323458.886297 720737.257265,-323471.105862 720765.437969,-323456.799866 720761.938734,-323448.531868 720781.207073,-323437.273718" />
    <poly id="1095231218" type="building" color="1.00,0.00,0.00" fill="1" layer="4" shape="720754.523206,-323428.887280 720759.047147,-323436.205932 720769.554680,-323430.318492 720764.719971,-323422.667490 720754.523206,-323428.887280" />
    <poly id="1095231219" type="building" color="1.00,0.00,0.00" fill="1" layer="4" shape="720770.775801,-323456.621291 720777.388198,-323452.540798 720773.939669,-323447.037884 720767.327253,-323451.129438 720770.775801,-323456.621291" />
    <poly id="1095231220" type="building" color="1.00,0.00,0.00" fill="1" layer="4" shape="720772.297025,-323464.144771 720778.087444,-323472.129265 720789.655585,-323463.854749 720783.865165,-323455.870254 720772.297025,-323464.144771" />
    <poly id="1095231221" type="building" color="1.00,0.00,0.00" fill="1" layer="4" shape="720773.983538,-323472.520163 720771.403253,-323466.510026 720767.252460,-323468.261219 720769.843864,-323474.271375 720773.983538,-323472.520163" />
    <poly id="1095231222" type="building" color="1.00,0.00,0.00" fill="1" layer="4" shape="720665.899659,-323428.066925 720673.318552,-323439.527121 720685.163423,-323431.960925 720677.755630,-323420.511808 720665.899659,-323428.066925" />
    <poly id="1095231223" type="building" color="1.00,0.00,0.00" fill="1" layer="4" shape="720690.217987,-323441.050107 720686.405162,-323434.042397 720674.751635,-323440.303854 720678.575579,-323447.311583 720690.217987,-323441.050107" />
    <poly id="1095231224" type="building" color="1.00,0.00,0.00" fill="1" layer="4" shape="720663.303967,-323437.054096 720660.588617,-323431.961705 720654.767532,-323435.026084 720657.482902,-323440.107415 720663.303967,-323437.054096" />
    <poly id="1095231225" type="building" color="1.00,0.00,0.00" fill="1" layer="4" shape="720645.418533,-323446.036347 720646.108998,-323458.026581 720655.450574,-323457.501163 720654.771230,-323445.510947 720645.418533,-323446.036347" />
    <poly id="1095231226" type="building" color="1.00,0.00,0.00" fill="1" layer="4" shape="720555.312111,-323416.026180 720553.399414,-323409.784977 720546.456937,-323411.885161 720548.369654,-323418.115304 720555.312111,-323416.026180" />
    <poly id="1095231227" type="building" color="1.00,0.00,0.00" fill="1" layer="4" shape="720564.107631,-323435.042755 720560.609342,-323426.232835 720549.648715,-323430.537910 720553.158124,-323439.347849 720564.107631,-323435.042755" />
    <poly id="1095231228" type="building" color="1.00,0.00,0.00" fill="1" layer="4" shape="720587.944585,-323418.395396 720580.835095,-323420.616942 720583.068837,-323427.666093 720590.178307,-323425.455607 720587.944585,-323418.395396" />
    <poly id="1095231229" type="building" color="1.00,0.00,0.00" fill="1" layer="4" shape="720580.190485,-323439.296094 720583.120020,-323449.034048 720594.334664,-323445.713763 720592.411143,-323439.306639 720587.360104,-323440.801865 720586.354108,-323437.459975 720580.190485,-323439.296094" />
    <poly id="1095231230" type="building" color="1.00,0.00,0.00" fill="1" layer="4" shape="720604.407412,-323459.313218 720610.668161,-323459.147328 720610.240879,-323442.954772 720603.980129,-323443.120663 720604.407412,-323459.313218" />
    <poly id="1095231231" type="building" color="1.00,0.00,0.00" fill="1" layer="4" shape="720615.561556,-323452.475757 720615.442786,-323444.180567 720610.972496,-323444.250083 720611.091268,-323452.545273 720615.561556,-323452.475757" />
    <poly id="1095231232" type="building" color="1.00,0.00,0.00" fill="1" layer="4" shape="720630.913685,-323429.774656 720627.501952,-323422.325261 720621.080693,-323425.222681 720624.503546,-323432.672095 720630.913685,-323429.774656" />
    <poly id="1095231233" type="building" color="1.00,0.00,0.00" fill="1" layer="4" shape="720553.872992,-323443.828400 720562.891974,-323443.368764 720563.353975,-323452.505116 720554.346134,-323452.953712 720553.872992,-323443.828400" />
    <poly id="1095231234" type="building" color="1.00,0.00,0.00" fill="1" layer="4" shape="720607.286198,-323535.477282 720592.564792,-323534.787649 720592.299101,-323540.405645 720599.659803,-323540.750462 720599.598679,-323550.162390 720607.304603,-323550.220259 720607.286198,-323535.477282" />
    <poly id="1095231235" type="building" color="1.00,0.00,0.00" fill="1" layer="4" shape="720609.494406,-323544.384466 720614.865550,-323544.228066 720614.614363,-323535.357523 720609.243239,-323535.502863 720609.494406,-323544.384466" />
    <poly id="1095231236" type="building" color="1.00,0.00,0.00" fill="1" layer="4" shape="720638.776788,-323504.443389 720650.626160,-323500.615475 720648.392015,-323493.798579 720636.553762,-323497.626513 720638.776788,-323504.443389" />
    <poly id="1095231237" type="building" color="1.00,0.00,0.00" fill="1" layer="4" shape="720651.716396,-323506.622970 720650.544390,-323502.838386 720639.652199,-323506.170294 720640.824206,-323509.954878 720651.716396,-323506.622970" />
    <poly id="1095231238" type="building" color="1.00,0.00,0.00" fill="1" layer="4" shape="720660.459519,-323492.382126 720650.781574,-323494.477464 720651.774353,-323499.002750 720661.452298,-323496.907412 720660.459519,-323492.382126" />
    <poly id="1095231239" type="building" color="1.00,0.00,0.00" fill="1" layer="4" shape="720666.399603,-323497.480222 720679.767164,-323496.608009 720679.377084,-323490.822951 720666.020642,-323491.695184 720666.399603,-323497.480222" />
    <poly id="1095231240" type="building" color="1.00,0.00,0.00" fill="1" layer="4" shape="720663.818855,-323498.017596 720653.392775,-323501.870146 720654.211198,-323504.382208 720655.680895,-323509.605116 720670.801322,-323504.743352 720669.166276,-323498.701713 720664.506501,-323499.025270 720663.818855,-323498.017596" />
    <poly id="1095231241" type="building" color="1.00,0.00,0.00" fill="1" layer="4" shape="720665.080082,-323507.940625 720666.275247,-323511.205433 720671.360253,-323509.367411 720670.165088,-323506.102604 720665.080082,-323507.940625" />
    <poly id="1095231242" type="building" color="1.00,0.00,0.00" fill="1" layer="4" shape="720655.548185,-323528.052921 720653.273670,-323518.913358 720646.209540,-323520.637279 720648.484036,-323529.787902 720655.548185,-323528.052921" />
    <poly id="1095231243" type="building" color="1.00,0.00,0.00" fill="1" layer="4" shape="720650.312781,-323539.479675 720657.198329,-323538.131479 720655.445916,-323529.291458 720648.549248,-323530.639635 720650.312781,-323539.479675" />
    <poly id="1095231244" type="building" color="1.00,0.00,0.00" fill="1" layer="4" shape="720668.373312,-323519.515186 720665.592734,-323513.582120 720657.513143,-323517.317160 720660.293721,-323523.250226 720668.373312,-323519.515186" />
    <poly id="1095231245" type="building" color="1.00,0.00,0.00" fill="1" layer="4" shape="720644.024257,-323511.343035 720645.705034,-323516.676916 720654.672544,-323513.883543 720652.991767,-323508.549662 720644.024257,-323511.343035" />
    <poly id="1095231246" type="building" color="1.00,0.00,0.00" fill="1" layer="4" shape="720675.233446,-323513.676594 720676.549010,-323518.025492 720688.319940,-323514.540303 720687.004375,-323510.191404 720675.233446,-323513.676594" />
    <poly id="1095231247" type="building" color="1.00,0.00,0.00" fill="1" layer="4" shape="720679.803368,-323501.286443 720681.529132,-323506.332846 720688.750174,-323503.912425 720687.024410,-323498.866022 720679.803368,-323501.286443" />
    <poly id="1095231248" type="building" color="1.00,0.00,0.00" fill="1" layer="4" shape="720685.656755,-323498.819363 720684.053171,-323493.850596 720680.359310,-323495.027480 720681.974014,-323499.996266 720685.656755,-323498.819363" />
    <poly id="1095231249" type="building" color="1.00,0.00,0.00" fill="1" layer="4" shape="720671.656997,-323505.054545 720673.827768,-323509.980075 720680.360127,-323507.138156 720678.178236,-323502.212607 720671.656997,-323505.054545" />
    <poly id="1095231250" type="building" color="1.00,0.00,0.00" fill="1" layer="4" shape="720681.338876,-323519.593422 720684.403285,-323528.513186 720694.016566,-323525.256439 720690.952158,-323516.336676 720681.338876,-323519.593422" />
    <poly id="1095232495" type="building" color="1.00,0.00,0.00" fill="1" layer="4" shape="720713.667622,-323549.070163 720725.584304,-323544.910578 720722.375635,-323535.824656 720710.458953,-323539.984243 720713.667622,-323549.070163" />
    <poly id="1095232496" type="building" color="1.00,0.00,0.00" fill="1" layer="4" shape="720730.579047,-323518.674082 720719.731213,-323522.072422 720723.756425,-323534.732161 720734.593139,-323531.333803 720730.579047,-323518.674082" />
    <poly id="1095232497" type="building" color="1.00,0.00,0.00" fill="1" layer="4" shape="720732.839592,-323516.853186 720741.764097,-323513.230244 720737.290961,-323502.339307 720728.366456,-323505.962250 720732.839592,-323516.853186" />
    <poly id="1095232498" type="building" color="1.00,0.00,0.00" fill="1" layer="4" shape="720736.477138,-323497.228156 720731.916803,-323485.341668 720722.402988,-323488.941449 720726.963324,-323500.827937 720736.477138,-323497.228156" />
    <poly id="1095232499" type="building" color="1.00,0.00,0.00" fill="1" layer="4" shape="720773.615429,-323517.157603 720768.414046,-323503.069040 720759.067378,-323506.470034 720764.279862,-323520.569676 720773.615429,-323517.157603" />
    <poly id="1095232500" type="building" color="1.00,0.00,0.00" fill="1" layer="4" shape="720680.258172,-323476.767278 720688.817854,-323471.938149 720685.580894,-323466.269714 720677.021212,-323471.098844 720680.258172,-323476.767278" />
    <poly id="1095232501" type="building" color="1.00,0.00,0.00" fill="1" layer="4" shape="720694.909305,-323473.187641 720682.345640,-323478.496327 720687.528315,-323490.594050 720697.076249,-323486.562988 720694.418535,-323480.320459 720697.412007,-323479.053857 720694.909305,-323473.187641" />