<?xml version="1.0" encoding="UTF-8"?>

<!-- generated on 2025-06-28 15:56:33 by Eclipse SUMO netedit Version v1_22_0+1130-d33eb0667db
<neteditConfiguration xmlns:xsi="http://www.w3.org/2001/XMLSchema-instance" xsi:noNamespaceSchemaLocation="http://sumo.dlr.de/xsd/neteditConfiguration.xsd">

    <input>
        <sumo-net-file value="erlangen.net.xml"/>
    </input>

    <output>
        <output-file value="erlangen.net.xml"/>
    </output>

    <processing>
        <geometry.min-radius.fix.railways value="false"/>
        <geometry.max-grade.fix value="false"/>
        <offset.disable-normalization value="true"/>
        <lefthand value="0"/>
    </processing>

    <junctions>
        <no-turnarounds value="true"/>
        <junctions.corner-detail value="5"/>
        <junctions.limit-turn-speed value="5.50"/>
        <rectangular-lane-cut value="0"/>
    </junctions>

    <pedestrian>
        <walkingareas value="0"/>
    </pedestrian>

</neteditConfiguration>
-->

<net version="1.20" junctionCornerDetail="5" limitTurnSpeed="5.50" xmlns:xsi="http://www.w3.org/2001/XMLSchema-instance" xsi:noNamespaceSchemaLocation="http://sumo.dlr.de/xsd/net_file.xsd">

    <location netOffset="0.00,0.00" convBoundary="170.50,2435.29,3008.19,2947.80" origBoundary="-79.039168,-2.946653,-78.994253,-2.912043" projParameter="+proj=utm +zone=17 +ellps=WGS84 +datum=WGS84 +units=m +no_defs"/>

    <type id="highway.footway" priority="1" numLanes="1" speed="2.78" allow="pedestrian" oneway="1" width="2.00"/>
    <type id="highway.trunk" priority="13" numLanes="2" speed="27.78" disallow="pedestrian bicycle tram rail_urban rail rail_electric rail_fast ship container cable_car subway aircraft wheelchair scooter drone" oneway="0"/>

    <edge id=":10030340460_0" function="internal">
        <lane id=":10030340460_0_0" index="0" speed="25.00" length="0.30" shape="2457.57,2867.31 2457.27,2867.27"/>
        <lane id=":10030340460_0_1" index="1" speed="25.00" length="0.30" shape="2458.01,2864.14 2457.71,2864.10"/>
        <lane id=":10030340460_0_2" index="2" speed="25.00" length="0.30" shape="2458.45,2860.97 2458.15,2860.93"/>
    </edge>
    <edge id=":1056905246_0" function="internal">
        <lane id=":1056905246_0_0" index="0" speed="13.89" length="7.95" shape="1044.81,2585.73 1052.33,2587.91"/>
        <lane id=":1056905246_0_1" index="1" speed="13.89" length="7.95" shape="1043.86,2588.78 1051.50,2591.00"/>
        <lane id=":1056905246_0_2" index="2" speed="13.89" length="7.95" shape="1042.91,2591.84 1050.67,2594.09"/>
    </edge>
    <edge id=":1056905566_0" function="internal">
        <lane id=":1056905566_0_0" index="0" speed="13.89" length="0.30" shape="902.14,2559.25 902.43,2559.26"/>
        <lane id=":1056905566_0_1" index="1" speed="13.89" length="0.30" shape="901.97,2562.44 902.27,2562.46"/>
        <lane id=":1056905566_0_2" index="2" speed="13.89" length="0.30" shape="901.80,2565.64 902.11,2565.65"/>
    </edge>
    <edge id=":10594442102_0" function="internal">
        <lane id=":10594442102_0_0" index="0" speed="25.00" length="11.20" shape="1423.29,2730.55 1412.66,2727.01"/>
        <lane id=":10594442102_0_1" index="1" speed="25.00" length="11.20" shape="1424.30,2727.51 1413.67,2723.97"/>
        <lane id=":10594442102_0_2" index="2" speed="25.00" length="11.20" shape="1425.31,2724.48 1414.68,2720.93"/>
    </edge>
    <edge id=":10594443224_0" function="internal">
        <lane id=":10594443224_0_0" index="0" speed="13.89" length="0.28" shape="1062.48,2613.17 1062.29,2613.11"/>
        <lane id=":10594443224_0_1" index="1" speed="13.89" length="0.28" shape="1063.53,2610.15 1063.26,2610.06"/>
        <lane id=":10594443224_0_2" index="2" speed="13.89" length="0.28" shape="1064.59,2607.13 1064.24,2607.01"/>
    </edge>
    <edge id=":10964841269_0" function="internal">
        <lane id=":10964841269_0_0" index="0" speed="13.89" length="0.30" shape="209.78,2460.54 209.49,2460.47"/>
        <lane id=":10964841269_0_1" index="1" speed="13.89" length="0.30" shape="210.55,2457.44 210.25,2457.36"/>
        <lane id=":10964841269_0_2" index="2" speed="13.89" length="0.30" shape="211.31,2454.33 211.02,2454.26"/>
    </edge>
    <edge id=":10964841270_0" function="internal">
        <lane id=":10964841270_0_0" index="0" speed="13.89" length="0.30" shape="214.23,2441.39 214.52,2441.46"/>
        <lane id=":10964841270_0_1" index="1" speed="13.89" length="0.30" shape="213.47,2444.49 213.77,2444.57"/>
        <lane id=":10964841270_0_2" index="2" speed="13.89" length="0.30" shape="212.72,2447.60 213.01,2447.68"/>
    </edge>
    <edge id=":10964989979_0" function="internal">
        <lane id=":10964989979_0_0" index="0" speed="13.89" length="0.10" shape="297.10,2461.46 297.10,2461.46"/>
        <lane id=":10964989979_0_1" index="1" speed="13.89" length="0.10" shape="296.35,2464.57 296.35,2464.57"/>
        <lane id=":10964989979_0_2" index="2" speed="13.89" length="0.10" shape="295.60,2467.68 295.60,2467.68"/>
    </edge>
    <edge id=":10964989980_0" function="internal">
        <lane id=":10964989980_0_0" index="0" speed="13.89" length="0.10" shape="235.84,2446.62 235.84,2446.62"/>
        <lane id=":10964989980_0_1" index="1" speed="13.89" length="0.10" shape="235.09,2449.73 235.09,2449.73"/>
        <lane id=":10964989980_0_2" index="2" speed="13.89" length="0.10" shape="234.34,2452.84 234.34,2452.84"/>
    </edge>
    <edge id=":10970058923_0" function="internal">
        <lane id=":10970058923_0_0" index="0" speed="13.89" length="0.10" shape="890.57,2579.06 890.57,2579.06"/>
        <lane id=":10970058923_0_1" index="1" speed="13.89" length="0.10" shape="890.81,2575.87 890.81,2575.87"/>
        <lane id=":10970058923_0_2" index="2" speed="13.89" length="0.10" shape="891.05,2572.68 891.05,2572.68"/>
    </edge>
    <edge id=":10970058929_0" function="internal">
        <lane id=":10970058929_0_0" index="0" speed="13.89" length="0.10" shape="621.19,2557.27 621.19,2557.27"/>
        <lane id=":10970058929_0_1" index="1" speed="13.89" length="0.10" shape="621.78,2554.12 621.78,2554.12"/>
        <lane id=":10970058929_0_2" index="2" speed="13.89" length="0.10" shape="622.37,2550.97 622.37,2550.97"/>
    </edge>
    <edge id=":10970058943_0" function="internal">
        <lane id=":10970058943_0_0" index="0" speed="13.89" length="0.30" shape="607.69,2554.74 607.40,2554.69"/>
        <lane id=":10970058943_0_1" index="1" speed="13.89" length="0.30" shape="608.28,2551.60 607.98,2551.54"/>
        <lane id=":10970058943_0_2" index="2" speed="13.89" length="0.30" shape="608.87,2548.45 608.57,2548.40"/>
    </edge>
    <edge id=":10970110875_0" function="internal">
        <lane id=":10970110875_0_0" index="0" speed="13.89" length="0.30" shape="394.73,2505.93 394.46,2505.86"/>
        <lane id=":10970110875_0_1" index="1" speed="13.89" length="0.30" shape="395.51,2502.83 395.23,2502.75"/>
        <lane id=":10970110875_0_2" index="2" speed="13.89" length="0.30" shape="396.30,2499.72 395.99,2499.65"/>
    </edge>
    <edge id=":10970110887_0" function="internal">
        <lane id=":10970110887_0_0" index="0" speed="13.89" length="0.10" shape="294.33,2481.29 294.33,2481.29"/>
        <lane id=":10970110887_0_1" index="1" speed="13.89" length="0.10" shape="295.09,2478.18 295.09,2478.18"/>
        <lane id=":10970110887_0_2" index="2" speed="13.89" length="0.10" shape="295.85,2475.07 295.85,2475.07"/>
    </edge>
    <edge id=":11064520303_0" function="internal">
        <lane id=":11064520303_0_0" index="0" speed="25.00" length="0.28" shape="1335.90,2677.56 1336.13,2677.64"/>
        <lane id=":11064520303_0_1" index="1" speed="25.00" length="0.28" shape="1334.76,2680.54 1335.05,2680.65"/>
    </edge>
    <edge id=":11379213263_0" function="internal">
        <lane id=":11379213263_0_0" index="0" speed="25.00" length="0.10" shape="1578.59,2755.95 1578.59,2755.95"/>
        <lane id=":11379213263_0_1" index="1" speed="25.00" length="0.10" shape="1577.59,2758.99 1577.59,2758.99"/>
        <lane id=":11379213263_0_2" index="2" speed="25.00" length="0.10" shape="1576.59,2762.03 1576.59,2762.03"/>
    </edge>
    <edge id=":12544090356_0" function="internal">
        <lane id=":12544090356_0_0" index="0" speed="27.78" length="3.49" shape="1266.50,2648.70 1263.06,2649.23"/>
        <lane id=":12544090356_0_1" index="1" speed="27.78" length="3.49" shape="1266.98,2651.87 1263.52,2652.39"/>
    </edge>
    <edge id=":12544090357_0" function="internal">
        <lane id=":12544090357_0_0" index="0" speed="11.96" length="9.60" shape="1288.77,2659.01 1290.52,2661.01 1292.29,2661.73 1294.41,2662.03 1297.20,2662.76"/>
        <lane id=":12544090357_0_1" index="1" speed="12.35" length="10.24" shape="1288.77,2659.01 1290.37,2661.58 1291.67,2663.29 1293.33,2664.54 1296.06,2665.75"/>
    </edge>
    <edge id=":12544090357_2" function="internal">
        <lane id=":12544090357_2_0" index="0" speed="15.81" length="11.07" shape="1288.77,2659.01 1290.63,2661.74 1291.91,2663.68 1292.70,2665.78 1293.09,2668.99"/>
        <lane id=":12544090357_2_1" index="1" speed="15.77" length="11.07" shape="1286.06,2660.71 1287.85,2663.46 1289.00,2665.45 1289.65,2667.59 1289.98,2670.80"/>
    </edge>
    <edge id=":1314751027_0" function="internal">
        <lane id=":1314751027_0_0" index="0" speed="25.00" length="8.60" shape="2627.27,2891.18 2624.76,2891.31 2623.07,2892.16 2621.38,2893.02 2618.87,2893.14"/>
        <lane id=":1314751027_0_1" index="1" speed="25.00" length="8.60" shape="2627.74,2888.01 2625.23,2888.14 2623.55,2889.00 2621.86,2889.86 2619.35,2889.98"/>
        <lane id=":1314751027_0_2" index="2" speed="25.00" length="8.60" shape="2628.22,2884.85 2625.71,2884.98 2624.03,2885.84 2622.34,2886.69 2619.84,2886.82"/>
        <lane id=":1314751027_0_3" index="3" speed="25.00" length="8.60" shape="2628.22,2884.85 2620.32,2883.65"/>
    </edge>
    <edge id=":1846265593_0" function="internal">
        <lane id=":1846265593_0_0" index="0" speed="25.00" length="0.26" shape="1386.52,2695.80 1386.70,2695.86"/>
        <lane id=":1846265593_0_1" index="1" speed="25.00" length="0.26" shape="1385.43,2698.81 1385.75,2698.92"/>
    </edge>
    <edge id=":2496229067_0" function="internal">
        <lane id=":2496229067_0_0" index="0" speed="25.00" length="8.00" shape="2947.18,2937.60 2939.38,2936.35"/>
        <lane id=":2496229067_0_1" index="1" speed="25.00" length="8.00" shape="2947.74,2934.45 2939.84,2933.18"/>
        <lane id=":2496229067_0_2" index="2" speed="25.00" length="8.00" shape="2948.30,2931.30 2940.30,2930.01"/>
    </edge>
    <edge id=":2496229140_0" function="internal">
        <lane id=":2496229140_0_0" index="0" speed="25.00" length="8.19" shape="1764.43,2838.01 1761.91,2837.88 1760.13,2838.55 1758.35,2839.21 1755.83,2839.03"/>
        <lane id=":2496229140_0_1" index="1" speed="25.00" length="8.19" shape="1764.43,2838.01 1756.68,2835.95"/>
        <lane id=":2496229140_0_2" index="2" speed="25.00" length="8.19" shape="1765.23,2834.91 1757.52,2832.86"/>
        <lane id=":2496229140_0_3" index="3" speed="25.00" length="8.19" shape="1766.03,2831.81 1758.37,2829.78"/>
    </edge>
    <edge id=":2496229246_0" function="internal">
        <lane id=":2496229246_0_0" index="0" speed="13.89" length="0.30" shape="1204.92,2664.11 1204.73,2664.03"/>
        <lane id=":2496229246_0_1" index="1" speed="13.89" length="0.30" shape="1206.20,2661.18 1205.92,2661.06"/>
        <lane id=":2496229246_0_2" index="2" speed="13.89" length="0.30" shape="1207.47,2658.24 1207.11,2658.09"/>
    </edge>
    <edge id=":2496260829_0" function="internal">
        <lane id=":2496260829_0_0" index="0" speed="13.89" length="8.00" shape="1060.73,2590.18 1068.45,2592.25"/>
        <lane id=":2496260829_0_1" index="1" speed="13.89" length="8.00" shape="1059.89,2593.27 1067.62,2595.34"/>
        <lane id=":2496260829_0_2" index="2" speed="13.89" length="8.00" shape="1059.06,2596.36 1066.79,2598.43"/>
    </edge>
    <edge id=":3192396427_0" function="internal">
        <lane id=":3192396427_0_0" index="0" speed="13.89" length="0.45" shape="1242.68,2643.69 1243.26,2643.80"/>
        <lane id=":3192396427_0_1" index="1" speed="13.89" length="0.45" shape="1242.13,2646.84 1242.57,2646.93"/>
        <lane id=":3192396427_0_2" index="2" speed="13.89" length="0.45" shape="1241.58,2649.99 1241.87,2650.05"/>
    </edge>
    <edge id=":3197274715_0" function="internal">
        <lane id=":3197274715_0_0" index="0" speed="13.89" length="3.90" shape="1237.11,2678.50 1240.45,2681.67"/>
        <lane id=":3197274715_0_1" index="1" speed="13.89" length="3.90" shape="1239.30,2676.16 1242.07,2678.91"/>
        <lane id=":3197274715_0_2" index="2" speed="13.89" length="3.90" shape="1241.48,2673.82 1243.68,2676.15"/>
    </edge>
    <edge id=":3197312479_0" function="internal">
        <lane id=":3197312479_0_0" index="0" speed="27.78" length="1.74" shape="1287.42,2657.12 1287.85,2657.58 1288.11,2657.92 1288.33,2658.29 1288.66,2658.84"/>
        <lane id=":3197312479_0_1" index="1" speed="27.78" length="1.74" shape="1285.19,2659.42 1285.47,2659.72 1285.62,2659.95 1285.75,2660.19 1285.95,2660.54"/>
    </edge>
    <edge id=":338566779#0-AddedOnRampNode_0" function="internal">
        <lane id=":338566779#0-AddedOnRampNode_0_0" index="0" speed="25.00" length="8.00" shape="1668.32,2809.92 1660.70,2807.48"/>
        <lane id=":338566779#0-AddedOnRampNode_0_1" index="1" speed="25.00" length="8.00" shape="1669.29,2806.87 1661.67,2804.44"/>
        <lane id=":338566779#0-AddedOnRampNode_0_2" index="2" speed="25.00" length="8.00" shape="1670.26,2803.82 1662.64,2801.39"/>
    </edge>
    <edge id=":347404243_0" function="internal">
        <lane id=":347404243_0_0" index="0" speed="25.00" length="8.19" shape="2396.26,2859.54 2393.78,2859.73 2392.13,2860.64 2390.49,2861.56 2388.00,2861.79"/>
        <lane id=":347404243_0_1" index="1" speed="25.00" length="8.19" shape="2396.26,2859.54 2388.35,2858.61"/>
        <lane id=":347404243_0_2" index="2" speed="25.00" length="8.19" shape="2396.65,2856.36 2388.71,2855.43"/>
        <lane id=":347404243_0_3" index="3" speed="25.00" length="8.19" shape="2397.05,2853.19 2389.06,2852.25"/>
    </edge>
    <edge id=":347760557#3-AddedOnRampNode_0" function="internal">
        <lane id=":347760557#3-AddedOnRampNode_0_0" index="0" speed="13.89" length="8.00" shape="1195.25,2633.69 1203.02,2635.59"/>
        <lane id=":347760557#3-AddedOnRampNode_0_1" index="1" speed="13.89" length="8.00" shape="1194.50,2636.80 1202.27,2638.70"/>
        <lane id=":347760557#3-AddedOnRampNode_0_2" index="2" speed="13.89" length="8.00" shape="1193.74,2639.90 1201.51,2641.81"/>
    </edge>
    <edge id=":4060549240_0" function="internal">
        <lane id=":4060549240_0_0" index="0" speed="25.00" length="0.30" shape="1813.75,2824.64 1814.05,2824.69"/>
        <lane id=":4060549240_0_1" index="1" speed="25.00" length="0.30" shape="1813.15,2827.78 1813.45,2827.84"/>
        <lane id=":4060549240_0_2" index="2" speed="25.00" length="0.30" shape="1812.55,2830.92 1812.85,2830.98"/>
    </edge>
    <edge id=":4179790828_0" function="internal">
        <lane id=":4179790828_0_0" index="0" speed="27.78" length="0.78" shape="1282.00,2694.22 1282.38,2693.85"/>
        <lane id=":4179790828_0_1" index="1" speed="27.78" length="0.78" shape="1280.01,2691.71 1280.81,2691.06"/>
    </edge>
    <edge id=":4179790829_0" function="internal">
        <lane id=":4179790829_0_0" index="0" speed="11.61" length="12.12" shape="1292.63,2694.12 1289.37,2693.54 1286.97,2692.78 1284.79,2692.69 1282.16,2694.10"/>
        <lane id=":4179790829_0_1" index="1" speed="12.71" length="12.12" shape="1292.81,2690.93 1288.87,2690.33 1285.98,2689.65 1283.35,2689.78 1280.17,2691.59"/>
    </edge>
    <edge id=":4179790829_2" function="internal">
        <lane id=":4179790829_2_0" index="0" speed="20.42" length="13.60" shape="1290.98,2683.61 1289.09,2687.25 1287.45,2689.57 1285.38,2691.53 1282.16,2694.10"/>
        <lane id=":4179790829_2_1" index="1" speed="19.96" length="13.60" shape="1288.46,2681.47 1286.68,2684.96 1285.17,2687.21 1283.23,2689.12 1280.17,2691.59"/>
    </edge>
    <edge id=":42201260#8-AddedOnRampNode_0" function="internal">
        <lane id=":42201260#8-AddedOnRampNode_0_0" index="0" speed="25.00" length="8.00" shape="2296.97,2850.31 2288.98,2849.94"/>
        <lane id=":42201260#8-AddedOnRampNode_0_1" index="1" speed="25.00" length="8.00" shape="2297.12,2847.12 2289.13,2846.75"/>
        <lane id=":42201260#8-AddedOnRampNode_0_2" index="2" speed="25.00" length="8.00" shape="2297.26,2843.92 2289.27,2843.55"/>
    </edge>
    <edge id=":525512671_0" function="internal">
        <lane id=":525512671_0_0" index="0" speed="13.89" length="0.44" shape="559.96,2545.84 559.38,2545.72"/>
        <lane id=":525512671_0_1" index="1" speed="13.89" length="0.44" shape="560.55,2542.69 560.11,2542.60"/>
        <lane id=":525512671_0_2" index="2" speed="13.89" length="0.44" shape="561.13,2539.54 560.84,2539.48"/>
    </edge>
    <edge id=":5297121016_0" function="internal">
        <lane id=":5297121016_0_0" index="0" speed="25.00" length="11.22" shape="1419.20,2705.93 1422.44,2706.67 1424.74,2706.82 1427.04,2706.98 1430.27,2707.76"/>
        <lane id=":5297121016_0_1" index="1" speed="25.00" length="11.22" shape="1418.25,2708.98 1421.48,2709.72 1423.77,2709.87 1426.06,2710.02 1429.28,2710.80"/>
        <lane id=":5297121016_0_2" index="2" speed="25.00" length="11.22" shape="1418.25,2708.98 1421.32,2710.20 1423.28,2711.39 1425.24,2712.59 1428.30,2713.85"/>
    </edge>
    <edge id=":5333985610_0" function="internal">
        <lane id=":5333985610_0_0" index="0" speed="20.84" length="16.81" shape="1249.42,2690.01 1246.58,2686.01 1244.03,2683.77 1241.13,2681.80 1237.26,2678.63"/>
        <lane id=":5333985610_0_1" index="1" speed="20.84" length="17.07" shape="1249.42,2690.01 1246.91,2685.61 1245.13,2682.59 1243.01,2679.86 1239.45,2676.30"/>
        <lane id=":5333985610_0_2" index="2" speed="20.84" length="18.09" shape="1249.42,2690.01 1247.20,2685.12 1246.26,2681.39 1244.96,2677.96 1241.63,2673.96"/>
    </edge>
    <edge id=":5333985610_3" function="internal">
        <lane id=":5333985610_3_0" index="0" speed="15.47" length="23.29" shape="1249.42,2690.01 1246.16,2683.66 1244.21,2677.80 1243.56,2672.45 1244.23,2667.59"/>
        <lane id=":5333985610_3_1" index="1" speed="15.26" length="23.29" shape="1252.17,2688.38 1249.23,2682.50 1247.54,2676.88 1247.09,2671.53 1247.89,2666.44"/>
    </edge>
    <edge id=":5335132684_0" function="internal">
        <lane id=":5335132684_0_0" index="0" speed="13.89" length="0.30" shape="384.15,2482.54 384.43,2482.61"/>
        <lane id=":5335132684_0_1" index="1" speed="13.89" length="0.30" shape="383.39,2485.65 383.69,2485.73"/>
        <lane id=":5335132684_0_2" index="2" speed="13.89" length="0.30" shape="382.64,2488.76 382.94,2488.84"/>
    </edge>
    <edge id=":5335132686_0" function="internal">
        <lane id=":5335132686_0_0" index="0" speed="13.89" length="0.30" shape="696.96,2546.70 697.26,2546.73"/>
        <lane id=":5335132686_0_1" index="1" speed="13.89" length="0.30" shape="696.65,2549.89 696.95,2549.91"/>
        <lane id=":5335132686_0_2" index="2" speed="13.89" length="0.30" shape="696.34,2553.07 696.64,2553.10"/>
    </edge>
    <edge id=":553416522#1-AddedOffRampNode_0" function="internal">
        <lane id=":553416522#1-AddedOffRampNode_0_0" index="0" speed="25.00" length="8.20" shape="1944.89,2856.62 1942.44,2857.18 1940.93,2858.31 1939.41,2859.44 1936.96,2860.00"/>
        <lane id=":553416522#1-AddedOffRampNode_0_1" index="1" speed="25.00" length="8.20" shape="1944.89,2856.62 1936.89,2856.80"/>
        <lane id=":553416522#1-AddedOffRampNode_0_2" index="2" speed="25.00" length="8.20" shape="1944.82,2853.42 1936.82,2853.60"/>
        <lane id=":553416522#1-AddedOffRampNode_0_3" index="3" speed="25.00" length="8.20" shape="1944.75,2850.22 1936.75,2850.40"/>
    </edge>
    <edge id=":601481674_0" function="internal">
        <lane id=":601481674_0_0" index="0" speed="13.89" length="0.30" shape="1044.59,2607.45 1044.33,2607.37"/>
        <lane id=":601481674_0_1" index="1" speed="13.89" length="0.30" shape="1045.56,2604.41 1045.28,2604.32"/>
        <lane id=":601481674_0_2" index="2" speed="13.89" length="0.30" shape="1046.53,2601.36 1046.23,2601.26"/>
    </edge>
    <edge id=":616764444_0" function="internal">
        <lane id=":616764444_0_0" index="0" speed="25.00" length="7.99" shape="2556.11,2880.96 2548.16,2879.89"/>
        <lane id=":616764444_0_1" index="1" speed="25.00" length="7.99" shape="2556.52,2877.78 2548.60,2876.72"/>
        <lane id=":616764444_0_2" index="2" speed="25.00" length="7.99" shape="2556.93,2874.61 2549.04,2873.55"/>
    </edge>
    <edge id=":6193264311_0" function="internal">
        <lane id=":6193264311_0_0" index="0" speed="13.89" length="0.30" shape="1211.49,2666.96 1211.22,2666.85"/>
        <lane id=":6193264311_0_1" index="1" speed="13.89" length="0.30" shape="1212.77,2664.03 1212.49,2663.91"/>
        <lane id=":6193264311_0_2" index="2" speed="13.89" length="0.30" shape="1214.04,2661.09 1213.77,2660.97"/>
    </edge>
    <edge id=":621223731_0" function="internal">
        <lane id=":621223731_0_0" index="0" speed="13.89" length="0.29" shape="463.12,2523.17 462.79,2523.09"/>
        <lane id=":621223731_0_1" index="1" speed="13.89" length="0.29" shape="463.85,2520.05 463.57,2519.99"/>
        <lane id=":621223731_0_2" index="2" speed="13.89" length="0.29" shape="464.58,2516.94 464.35,2516.88"/>
    </edge>
    <edge id=":6399536858_0" function="internal">
        <lane id=":6399536858_0_0" index="0" speed="25.00" length="0.30" shape="2042.24,2831.02 2042.53,2831.01"/>
        <lane id=":6399536858_0_1" index="1" speed="25.00" length="0.30" shape="2042.35,2834.22 2042.65,2834.20"/>
        <lane id=":6399536858_0_2" index="2" speed="25.00" length="0.30" shape="2042.46,2837.41 2042.77,2837.40"/>
    </edge>
    <edge id=":6412837177_0" function="internal">
        <lane id=":6412837177_0_0" index="0" speed="25.00" length="0.29" shape="2786.67,2914.74 2786.34,2914.69"/>
        <lane id=":6412837177_0_1" index="1" speed="25.00" length="0.29" shape="2787.09,2911.57 2786.81,2911.53"/>
        <lane id=":6412837177_0_2" index="2" speed="25.00" length="0.29" shape="2787.51,2908.40 2787.28,2908.36"/>
    </edge>
    <edge id=":6431768516_0" function="internal">
        <lane id=":6431768516_0_0" index="0" speed="19.45" length="0.27" shape="2780.42,2888.46 2780.77,2888.51"/>
        <lane id=":6431768516_0_1" index="1" speed="19.45" length="0.27" shape="2780.00,2891.63 2780.26,2891.67"/>
        <lane id=":6431768516_0_2" index="2" speed="19.45" length="0.27" shape="2779.57,2894.80 2779.76,2894.83"/>
    </edge>
    <edge id=":644620793_0" function="internal">
        <lane id=":644620793_0_0" index="0" speed="13.89" length="7.88" shape="1101.12,2601.07 1103.65,2601.24 1105.45,2600.62 1107.23,2600.06 1109.69,2600.42"/>
        <lane id=":644620793_0_1" index="1" speed="13.89" length="7.88" shape="1101.12,2601.07 1108.60,2603.43"/>
        <lane id=":644620793_0_2" index="2" speed="13.89" length="7.88" shape="1100.29,2604.16 1107.51,2606.44"/>
        <lane id=":644620793_0_3" index="3" speed="13.89" length="7.88" shape="1099.46,2607.25 1106.42,2609.45"/>
    </edge>
    <edge id=":6540129205_0" function="internal">
        <lane id=":6540129205_0_0" index="0" speed="25.00" length="0.29" shape="2727.00,2906.13 2726.67,2906.08"/>
        <lane id=":6540129205_0_1" index="1" speed="25.00" length="0.29" shape="2727.43,2902.96 2727.15,2902.92"/>
        <lane id=":6540129205_0_2" index="2" speed="25.00" length="0.29" shape="2727.87,2899.79 2727.62,2899.75"/>
    </edge>
    <edge id=":6644516494_0" function="internal">
        <lane id=":6644516494_0_0" index="0" speed="20.84" length="19.10" shape="1248.45,2644.96 1253.73,2646.57 1257.33,2648.10 1260.96,2649.00 1266.30,2648.73"/>
        <lane id=":6644516494_0_1" index="1" speed="20.84" length="19.10" shape="1247.76,2648.08 1253.38,2649.77 1257.22,2651.32 1261.09,2652.21 1266.78,2651.90"/>
    </edge>
    <edge id=":6644516494_2" function="internal">
        <lane id=":6644516494_2_0" index="0" speed="16.20" length="20.16" shape="1248.72,2658.15 1252.85,2653.72 1256.28,2651.19 1260.32,2649.78 1266.30,2648.73"/>
        <lane id=":6644516494_2_1" index="1" speed="13.00" length="20.16" shape="1250.32,2661.36 1252.91,2657.91 1256.52,2655.19 1261.15,2653.18 1266.78,2651.90"/>
    </edge>
    <edge id=":7157059524_0" function="internal">
        <lane id=":7157059524_0_0" index="0" speed="25.00" length="0.30" shape="2007.72,2855.27 2007.42,2855.27"/>
        <lane id=":7157059524_0_1" index="1" speed="25.00" length="0.30" shape="2007.65,2852.07 2007.35,2852.07"/>
        <lane id=":7157059524_0_2" index="2" speed="25.00" length="0.30" shape="2007.58,2848.87 2007.28,2848.87"/>
    </edge>
    <edge id=":7157059527_0" function="internal">
        <lane id=":7157059527_0_0" index="0" speed="25.00" length="0.29" shape="2077.21,2852.87 2076.88,2852.88"/>
        <lane id=":7157059527_0_1" index="1" speed="25.00" length="0.29" shape="2077.03,2849.67 2076.73,2849.69"/>
        <lane id=":7157059527_0_2" index="2" speed="25.00" length="0.29" shape="2076.85,2846.48 2076.59,2846.49"/>
    </edge>
    <edge id=":760222534_0" function="internal">
        <lane id=":760222534_0_0" index="0" speed="27.78" length="3.76" shape="1247.75,2687.11 1249.52,2690.19"/>
        <lane id=":760222534_0_1" index="1" speed="27.78" length="3.76" shape="1250.26,2685.13 1252.27,2688.55"/>
    </edge>
    <edge id=":8315140981_0" function="internal">
        <lane id=":8315140981_0_0" index="0" speed="13.89" length="0.27" shape="930.49,2583.35 930.15,2583.31"/>
        <lane id=":8315140981_0_1" index="1" speed="13.89" length="0.27" shape="930.87,2580.18 930.60,2580.14"/>
        <lane id=":8315140981_0_2" index="2" speed="13.89" length="0.27" shape="931.24,2577.00 931.04,2576.97"/>
    </edge>
    <edge id=":983030277_0" function="internal">
        <lane id=":983030277_0_0" index="0" speed="25.00" length="7.54" shape="1844.45,2854.37 1836.70,2853.28"/>
        <lane id=":983030277_0_1" index="1" speed="25.00" length="7.54" shape="1844.76,2851.19 1837.29,2850.13"/>
        <lane id=":983030277_0_2" index="2" speed="25.00" length="7.54" shape="1845.07,2848.00 1837.88,2846.99"/>
    </edge>

    <edge id="1095244323#0" from="5297121016" to="11379213263" priority="13" type="highway.trunk" spreadType="center" shape="1423.87,2709.05 1532.37,2744.15 1577.59,2758.99">
        <lane id="1095244323#0_0" index="0" speed="25.00" length="155.94" shape="1430.27,2707.76 1533.36,2741.11 1578.59,2755.95"/>
        <lane id="1095244323#0_1" index="1" speed="25.00" length="155.94" shape="1429.28,2710.80 1532.37,2744.15 1577.59,2758.99"/>
        <lane id="1095244323#0_2" index="2" speed="25.00" length="155.94" shape="1428.30,2713.85 1531.38,2747.19 1576.59,2762.03"/>
        <param key="ref" value="E35"/>
    </edge>
    <edge id="1095244323#1" from="11379213263" to="4060549240" priority="13" type="highway.trunk" spreadType="center" shape="1577.59,2758.99 1706.14,2801.18 1742.88,2812.23 1774.08,2820.33 1791.22,2823.59 1813.30,2827.81">
        <lane id="1095244323#1_0" index="0" speed="25.00" length="245.67" shape="1578.59,2755.95 1707.10,2798.13 1743.74,2809.15 1774.78,2817.21 1791.82,2820.45 1813.75,2824.64"/>
        <lane id="1095244323#1_1" index="1" speed="25.00" length="245.67" shape="1577.59,2758.99 1706.14,2801.18 1742.88,2812.23 1774.08,2820.33 1791.22,2823.59 1813.15,2827.78"/>
        <lane id="1095244323#1_2" index="2" speed="25.00" length="245.67" shape="1576.59,2762.03 1705.18,2804.23 1742.02,2815.31 1773.38,2823.45 1790.62,2826.73 1812.55,2830.92"/>
        <param key="ref" value="E35"/>
    </edge>
    <edge id="1136493517" from="5297121016" to="10594442102" priority="1" type="highway.footway" spreadType="center">
        <lane id="1136493517_0" index="0" speed="2.78" length="0.24" shape="1421.60,2717.25 1421.53,2717.49"/>
    </edge>
    <edge id="338566779#0" from="338566779#0-AddedOnRampNode" to="10594442102" priority="13" type="highway.trunk" spreadType="center" shape="1665.48,2805.65 1510.82,2756.39 1419.22,2725.82">
        <lane id="338566779#0_0" index="0" speed="25.00" length="249.53" shape="1660.70,2807.48 1509.83,2759.43 1423.29,2730.55"/>
        <lane id="338566779#0_1" index="1" speed="25.00" length="249.53" shape="1661.67,2804.44 1510.82,2756.39 1424.30,2727.51"/>
        <lane id="338566779#0_2" index="2" speed="25.00" length="249.53" shape="1662.64,2801.39 1511.81,2753.35 1425.31,2724.48"/>
        <param key="ref" value="E35"/>
    </edge>
    <edge id="338566779#0-AddedOnRampEdge" from="2496229140" to="338566779#0-AddedOnRampNode" priority="13" type="highway.trunk" spreadType="center" shape="1760.95,2835.46 1709.49,2821.35 1664.99,2807.18">
        <lane id="338566779#0-AddedOnRampEdge_0" index="0" speed="25.00" length="92.07" acceleration="1" shape="1755.83,2839.03 1708.13,2825.95 1667.35,2812.97"/>
        <lane id="338566779#0-AddedOnRampEdge_1" index="1" speed="25.00" length="92.07" shape="1756.68,2835.95 1709.04,2822.88 1668.32,2809.92"/>
        <lane id="338566779#0-AddedOnRampEdge_2" index="2" speed="25.00" length="92.07" shape="1757.52,2832.86 1709.94,2819.82 1669.29,2806.87"/>
        <lane id="338566779#0-AddedOnRampEdge_3" index="3" speed="25.00" length="92.07" shape="1758.37,2829.78 1710.85,2816.75 1670.26,2803.82"/>
        <param key="ref" value="E35"/>
    </edge>
    <edge id="338566779#1" from="10594442102" to="4179790829" priority="13" type="highway.trunk" spreadType="center" shape="1419.22,2725.82 1341.27,2699.83 1337.73,2698.75 1327.66,2695.96 1316.85,2693.45 1302.41,2691.47 1284.20,2690.44">