<?xml version="1.0" encoding="UTF-8"?>

<!-- generated on 2025-06-28 15:58:01.812893 by randomTrips.py v1_22_0+1130-d33eb0667db
<configuration>
    <net-file value="erlangen.net.xml"/>
    <route-file value="erlangen1.rou.xml"/>
    <verbose value="True"/>
    <period value="36.0"/>
</configuration>
-->

<routes xmlns:xsi="http://www.w3.org/2001/XMLSchema-instance" xsi:noNamespaceSchemaLocation="http://sumo.dlr.de/xsd/routes_file.xsd">
    <trip id="0" depart="0.00" from="45427974" to="1095244323#1"/>
    <trip id="1" depart="36.00" from="347760559#3" to="347760558"/>
    <trip id="2" depart="72.00" from="45427977#5" to="45427977#3"/>
    <trip id="3" depart="108.00" from="47198284#4" to="338566779#1"/>
    <trip id="4" depart="144.00" from="397300510" to="1095244323#1"/>
    <trip id="5" depart="180.00" from="347760558" to="42201260#4"/>
    <trip id="6" depart="216.00" from="1095244323#1" to="347760557#3-AddedOnRampEdge"/>
    <trip id="7" depart="252.00" from="45427974" to="42201260#6"/>
    <trip id="8" depart="288.00" from="347760558" to="42201260#8"/>
    <trip id="9" depart="324.00" from="47198284#0" to="1095244323#0"/>
    <trip id="10" depart="360.00" from="47198284#0" to="45427977#4"/>
    <trip id="11" depart="396.00" from="347760559#6" to="347760557#2"/>
    <trip id="12" depart="432.00" from="548305060#2" to="347760559#6"/>
    <trip id="13" depart="468.00" from="338566779#1" to="338566779#1"/>
    <trip id="14" depart="504.00" from="47198284#2" to="42201260#8-AddedOnRampEdge"/>
    <trip id="15" depart="540.00" from="47198284#0" to="45427977#5"/>
    <trip id="16" depart="576.00" from="42201260#6" to="553416522#1-AddedOffRampEdge"/>
    <trip id="17" depart="612.00" from="347760559#8" to="42201260#7"/>
    <trip id="18" depart="648.00" from="47198284#1" to="42201260#9"/>
    <trip id="19" depart="684.00" from="47198284#3" to="42201260#8"/>
    <trip id="20" depart="720.00" from="45427977#3" to="338566779#0"/>
    <trip id="21" depart="756.00" from="347760559#1" to="347760559#4"/>
    <trip id="22" depart="792.00" from="338566779#0-AddedOnRampEdge" to="347760559#1"/>
    <trip id="23" depart="828.00" from="338566779#1" to="347760559#3"/>
    <trip id="24" depart="864.00" from="45427974" to="347760559#7"/>
    <trip id="25" depart="900.00" from="347760559#8" to="347760558"/>
    <trip id="26" depart="936.00" from="347760559#3" to="548305060#2"/>
    <trip id="27" depart="972.00" from="45427974" to="42201260#8-AddedOnRampEdge"/>
    <trip id="28" depart="1008.00" from="347760557#3" to="45427977#5"/>
    <trip id="29" depart="1044.00" from="347760557#3" to="347760559#8"/>
    <trip id="30" depart="1080.00" from="553416522#1-AddedOffRampEdge" to="45427977#1"/>
    <trip id="31" depart="1116.00" from="42201260#7" to="45427977#3"/>
    <trip id="32" depart="1152.00" from="47198284#2" to="47198284#0"/>
    <trip id="33" depart="1188.00" from="347760559#1" to="1095244323#1"/>
    <trip id="34" depart="1224.00" from="347760559#5" to="347760559#3"/>
    <trip id="35" depart="1260.00" from="347760558" to="553416522#1"/>
    <trip id="36" depart="1296.00" from="47198284#3" to="347760559#5"/>
    <trip id="37" depart="1332.00" from="45427977#1" to="347760559#9"/>
    <trip id="38" depart="1368.00" from="548305060#0" to="42201260#2"/>
    <trip id="39" depart="1404.00" from="347760559#2" to="347760559#2"/>
    <trip id="40" depart="1440.00" from="42201260#7" to="347760559#2"/>
    <trip id="41" depart="1476.00" from="42201260#8" to="548305060#0"/>
    <trip id="42" depart="1512.00" from="397300508" to="347760558"/>
    <trip id="43" depart="1548.00" from="553416522#1-AddedOffRampEdge" to="42201260#4"/>
    <trip id="44" depart="1584.00" from="338566779#1" to="338566779#0"/>
    <trip id="45" depart="1620.00" from="347760556" to="42201260#9"/>
    <trip id="46" depart="1656.00" from="47198277#1" to="397300508"/>
    <trip id="47" depart="1692.00" from="338566779#0-AddedOnRampEdge" to="347760559#8"/>
    <trip id="48" depart="1728.00" from="553416522#1-AddedOffRampEdge" to="42201260#5"/>
    <trip id="49" depart="1764.00" from="553416522#1" to="47198284#4"/>
    <trip id="50" depart="1800.00" from="1095244323#0" to="45427977#5"/>
    <trip id="51" depart="1836.00" from="45427977#2" to="42201260#6"/>
    <trip id="52" depart="1872.00" from="347760559#3" to="45427977#1"/>
    <trip id="53" depart="1908.00" from="347760556" to="397300510"/>
    <trip id="54" depart="1944.00" from="42201260#2" to="553416522#1"/>
    <trip id="55" depart="1980.00" from="47198284#3" to="347760559#2"/>
    <trip id="56" depart="2016.00" from="42201260#4" to="347760557#3"/>
    <trip id="57" depart="2052.00" from="548305060#0" to="47198284#4"/>
    <trip id="58" depart="2088.00" from="347760559#4" to="45427977#1"/>
    <trip id="59" depart="2124.00" from="42201260#8-AddedOnRampEdge" to="347760557#2"/>
    <trip id="60" depart="2160.00" from="47198277#0" to="42201260#6"/>
    <trip id="61" depart="2196.00" from="47198277#1" to="42201260#5"/>
    <trip id="62" depart="2232.00" from="1095244323#0" to="347760559#5"/>
    <trip id="63" depart="2268.00" from="1095244323#0" to="548305060#2"/>
    <trip id="64" depart="2304.00" from="47198284#4" to="47198284#2"/>
    <trip id="65" depart="2340.00" from="347760559#5" to="338566779#0"/>
    <trip id="66" depart="2376.00" from="47198284#4" to="553416522#1"/>
    <trip id="67" depart="2412.00" from="338566779#1" to="42201260#3"/>
    <trip id="68" depart="2448.00" from="338566779#0-AddedOnRampEdge" to="47198277#1"/>
    <trip id="69" depart="2484.00" from="47198277#0" to="347760557#1"/>
    <trip id="70" depart="2520.00" from="42201260#3" to="42201260#6"/>
    <trip id="71" depart="2556.00" from="347760559#2" to="47198284#4"/>
    <trip id="72" depart="2592.00" from="397300510" to="347760558"/>
    <trip id="73" depart="2628.00" from="42201260#6" to="45427977#5"/>
    <trip id="74" depart="2664.00" from="347760557#3-AddedOnRampEdge" to="347760559#5"/>
    <trip id="75" depart="2700.00" from="553416522#1-AddedOffRampEdge" to="45427977#1"/>
    <trip id="76" depart="2736.00" from="42201260#1" to="42201260#5"/>
    <trip id="77" depart="2772.00" from="347760556" to="347760559#1"/>
    <trip id="78" depart="2808.00" from="347760559#6" to="42201260#8"/>
    <trip id="79" depart="2844.00" from="347760559#1" to="347760558"/>
    <trip id="80" depart="2880.00" from="338566779#0-AddedOnRampEdge" to="42201260#9"/>
    <trip id="81" depart="2916.00" from="347760559#1" to="548305060#1"/>
    <trip id="82" depart="2952.00" from="47198284#3" to="338566779#0-AddedOnRampEdge"/>
    <trip id="83" depart="2988.00" from="347760559#1" to="45427977#2"/>
    <trip id="84" depart="3024.00" from="347760558" to="347760557#1"/>
    <trip id="85" depart="3060.00" from="548305060#1" to="42201260#7"/>
    <trip id="86" depart="3096.00" from="42201260#3" to="47198284#0"/>
    <trip id="87" depart="3132.00" from="47198284#0" to="347760557#3-AddedOnRampEdge"/>
    <trip id="88" depart="3168.00" from="338566779#1" to="397300510"/>
    <trip id="89" depart="3204.00" from="397300510" to="42201260#2"/>
    <trip id="90" depart="3240.00" from="45427977#4" to="45427977#2"/>
    <trip id="91" depart="3276.00" from="553416522#1-AddedOffRampEdge" to="338566779#1"/>
    <trip id="92" depart="3312.00" from="397300508" to="347760559#6"/>
    <trip id="93" depart="3348.00" from="47198284#3" to="347760559#2"/>
    <trip id="94" depart="3384.00" from="347760557#3-AddedOnRampEdge" to="397300510"/>
    <trip id="95" depart="3420.00" from="397300510" to="347760559#3"/>
    <trip id="96" depart="3456.00" from="347760559#2" to="548305060#2"/>
    <trip id="97" depart="3492.00" from="42201260#1" to="47198284#4"/>
    <trip id="98" depart="3528.00" from="42201260#6" to="338566779#0"/>
    <trip id="99" depart="3564.00" from="553416522#1-AddedOffRampEdge" to="47198284#2"/>
</routes>
