<?xml version="1.0"?>

<!--
// Copyright (C) 2011 Christoph Sommer <sommer@ccs-labs.org>
//
// Documentation for these modules is at http://veins.car2x.org/
//
// SPDX-License-Identifier: (GPL-2.0-or-later OR CC-BY-SA-4.0)
//
// This program is free software; you can redistribute it and/or modify
// it under the terms of the GNU General Public License as published by
// the Free Software Foundation; either version 2 of the License, or
// (at your option) any later version.
//
// This program is distributed in the hope that it will be useful,
// but WITHOUT ANY WARRANTY; without even the implied warranty of
// MERCHANTABILITY or FITNESS FOR A PARTICULAR PURPOSE.  See the
// GNU General Public License for more details.
//
// You should have received a copy of the GNU General Public License
// along with this program; if not, write to the Free Software
// Foundation, Inc., 59 Temple Place, Suite 330, Boston, MA  02111-1307  USA
//
// -
//
// At your option, you can also redistribute and/or modify this file
// under a
// Creative Commons Attribution-ShareAlike 4.0 International License.
//
// You should have received a copy of the license along with this
// work.  If not, see <http://creativecommons.org/licenses/by-sa/4.0/>.
-->

<!--
194 Cars leaving the Computer Science Building and campus of the University of Erlangen-Nuremberg
-->

<routes>
   <vType id="vtype0" accel="2.6" decel="4.5" sigma="0.5" length="2.5" minGap="2.5" maxSpeed="14" color="255,0,0"/>
   <vType id="car" accel="2.6" decel="4.5" sigma="0.5" length="4.5" minGap="2.5" maxSpeed="14" color="255,0,0"/> <!-- Rojo -->
   <vType id="truck" accel="1.2" decel="3.0" sigma="0.5" length="8" minGap="3.0" maxSpeed="10" color="0,0,255"/> <!-- Azul -->
   <vType id="emergency" accel="3.0" decel="5.0" sigma="0.3" length="4.5" minGap="2.0" maxSpeed="20" color="0,255,0"/> <!-- Verde -->
   <route id="route0" edges="3998615#0 3998615#1 3998615#2 3998615#3"/>
   <flow id="carFlow" type="car" route="route0" begin="0" period="3" number="2"/>
   <flow id="truckFlow" type="truck" route="route0" begin="10" period="10" number="2"/>
   <vehicle id="emergency1" type="emergency" route="route0" depart="30"/>
</routes>
